 &diagnostics_list
# 1 year
  frequency(1) = -2.0 
  filename(1) = 'PhiVEL',
  timePhase(1) = 1.
  fields(1,1) = 'PhiVEL  ',
  frequency(2) = -2.0 
  filename(2) = 'PsiVEL',
  timePhase(2) = 1.
  fields(1,2) = 'PsiVEL  ',
  frequency(3) = -2.0 
  filename(3) = 'UVEL',
  timePhase(3) = 1.
  fields(1,3) = 'UVEL    ',
  frequency(4) = -2.0 
  filename(4) = 'VVEL',
  timePhase(4) = 1.
  fields(1,4) = 'VVEL    ',
 &
 &DIAG_STATIS_PARMS
 &
