&PTRACERS_PARM01
 PTRACERS_numInUse=1,
 PTRACERS_Iter0= 0,
# two days = 172800 2
# one year = 31449600 s
# one month = 2620800
 PTRACERS_dumpFreq=172800.0,
 PTRACERS_taveFreq=0.,
 PTRACERS_names(1)='SSS',
 PTRACERS_advScheme(1)=77,
 PTRACERS_diffKh(1)=25.,
 PTRACERS_initialFile(1)='SSS_tracer.bin',
 PTRACERS_resetFreq(1)=31449600.,
 PTRACERS_resetPhase(1)=0.,
&

